/*--------------------------------*- C++ -*----------------------------------*\
| =========                 |                                                 |
| \\      /  F ield         | OpenFOAM: The Open Source CFD Toolbox           |
|  \\    /   O peration     | Version:  2.4.0                                 |
|   \\  /    A nd           | Web:      www.OpenFOAM.org                      |
|    \\/     M anipulation  |                                                 |
\*---------------------------------------------------------------------------*/
FoamFile
{
    version     2.0;
    format      ascii;
    class       dictionary;
    object      sampleDict;
}
// * * * * * * * * * * * * * * * * * * * * * * * * * * * * * * * * * * * * //

surfaceFormat   raw;
setFormat       raw;

// interpolationScheme. choice of
//      cell          : use cell-centre value only; constant over cells
//                      (default)
//      cellPoint     : use cell-centre and vertex values
//      cellPointFace : use cell-centre, vertex and face values.
//      pointMVC      : use point values only (Mean Value Coordinates)
//      cellPatchConstrained : like 'cell' but uses cell-centre except on
//                             boundary faces where it uses the boundary value.
//                             For use with e.g. patchCloudSet.
// 1] vertex values determined from neighbouring cell-centre values
// 2] face values determined using the current face interpolation scheme
//    for the field (linear, gamma, etc.)
interpolationScheme cell;

// Fields to sample.
fields
(
// instantaneous data for scatter plot and conditional mean
    Z varZ T CH4 O2 H2O CO2 CO OH H2 NO chi
);

// Set sampling definition: choice of
//      uniform             evenly distributed points on line
//      face                one point per face intersection
//      midPoint            one point per cell, inbetween two face intersections
//      midPointAndFace     combination of face and midPoint
//
//      polyLine            specified points, not nessecary on line, uses
//                          tracking
//      cloud               specified points, uses findCell
//      triSurfaceMeshPointSet  points of triSurface
//
// axis: how to write point coordinate. Choice of
// - x/y/z: x/y/z coordinate only
// - xyz: three columns
//  (probably does not make sense for anything but raw)
// - distance: distance from start of sampling line (if uses line) or
//             distance from first specified sampling point
//
// type specific:
//      uniform, face, midPoint, midPointAndFace : start and end coordinate
//      uniform: extra number of sampling points
//      polyLine, cloud: list of coordinates
//      patchCloud: list of coordinates and set of patches to look for nearest
//      patchSeed: random sampling on set of patches. Points slightly off
//                 face centre.
//sets
//(
//    axis 
//    {
//        type        face;
//        axis        z;
//        start       (0.0 0.0 0.0 );
//        end         (0.0 0.0 $x80);
//    }
//
//);

xDPlane
{
    type            plane;
    interpolate     true;
    normalVector    ( 0 0 1 );
}

surfaces
(
    z40
    {
        $xDPlane;
        basePoint   ( 0 0 0.04 );
    }
    z42
    {
        $xDPlane;
        basePoint   ( 0 0 0.042 );
    }
    z45
    {
        $xDPlane;
        basePoint   ( 0 0 0.045 );
    }
    z50
    {
        $xDPlane;
        basePoint   ( 0 0 0.05 );
    }
    z55
    {
        $xDPlane;
        basePoint   ( 0 0 0.055 );
    }
    z60
    {
        $xDPlane;
        basePoint   ( 0 0 0.06 );
    }
    z65
    {
        $xDPlane;
        basePoint   ( 0 0 0.065 );
    }
    z70
    {
        $xDPlane;
        basePoint   ( 0 0 0.07 );
    }
    z80
    {
        $xDPlane;
        basePoint   ( 0 0 0.08 );
    }
    z90
    {
        $xDPlane;
        basePoint   ( 0 0 0.09 );
    }
    z100
    {
        $xDPlane;
        basePoint   ( 0 0 0.1 );
    }
);

// *********************************************************************** //
